#! (H2O)10 structure 1

molecule h2o {
0 1
O -0.705442 -1.349758 1.214765
H 0.126010 -0.876078 1.191386
H -0.516225 -2.187693 0.792517
O 3.824371 1.438172 -0.403935
H 4.650970 1.718565 -0.011065
H 4.071861 0.742061 -1.012549
O 4.216662 -0.531519 -2.198375
H 3.625246 -1.240602 -1.946065
H 3.843826 -0.185047 -3.009043
O -2.327833 -0.090917 -0.527864
H -1.830686 -0.520332 0.168326
H -3.159415 0.146484 -0.117565
O 2.200966 2.560409 -2.364276
H 1.329361 2.347136 -2.031030
H 2.792151 2.351595 -1.641000
O 1.629760 -0.050419 0.389889
H 2.406171 0.506871 0.336548
H 1.825769 -0.790670 -0.184430
O 1.979639 -2.029790 -1.441553
H 1.478340 -1.615959 -2.144173
H 1.393697 -2.701126 -1.091964
O -0.036064 1.238029 -1.330412
H -0.925550 0.979186 -1.089478
H 0.517641 0.857236 -0.648766
O -1.613183 -2.129095 -2.280834
H -0.981616 -1.680418 -2.843012
H -2.020751 -1.428817 -1.771195
O 0.525667 -0.607781 -3.246645
H 0.277252 0.099430 -2.651351
H 1.224683 -0.234893 -3.783826
O 2.761833 0.696997 -4.226186
H 2.581390 1.435378 -3.644408
H 3.021650 1.101532 -5.053881
O -0.159369 -3.494215 -0.470734
H -0.723564 -3.107069 -1.140089
H -0.414204 -4.416543 -0.446208
}

memory 15000 mb
plugin_load('../plugin_gpu_ccsd.so')
memory 15000 mb
set {
  r_convergence 1e-7
  basis 6-31g(d)
  freeze_core true
}
PsiMod.set_global_option('WFN', 'CCSD')
scf_energy = scf()
transqt2()
plugin('../plugin_gpu_ccsd.so')

clean()
